23284
  -OEChem-04272217243D

 50 49  0     1  0  0  0  0  0999 V2000
   -1.2608   -0.3606   -0.3959 O   0  0  0  0  0  0  0  0  0  0  0  0
    2.0270    0.4821   -0.0570 O   0  0  0  0  0  0  0  0  0  0  0  0
   -1.8351   -1.4969    1.5272 O   0  0  0  0  0  0  0  0  0  0  0  0
    3.4446   -0.5580   -1.5498 O   0  0  0  0  0  0  0  0  0  0  0  0
   -0.0196    1.7208   -0.6115 C   0  0  0  0  0  0  0  0  0  0  0  0
   -0.9100    0.8270    0.3205 C   0  0  1  0  0  0  0  0  0  0  0  0
   -2.1894    1.4769    0.9219 C   0  0  0  0  0  0  0  0  0  0  0  0
    1.1954    0.9031   -1.1311 C   0  0  0  0  0  0  0  0  0  0  0  0
   -0.8421    2.1959   -1.8290 C   0  0  0  0  0  0  0  0  0  0  0  0
    0.5417    2.9561    0.1124 C   0  0  0  0  0  0  0  0  0  0  0  0
   -3.2072    1.9569   -0.1205 C   0  0  0  0  0  0  0  0  0  0  0  0
   -1.7990    2.6825    1.7924 C   0  0  0  0  0  0  0  0  0  0  0  0
   -1.9401   -1.3036    0.3230 C   0  0  0  0  0  0  0  0  0  0  0  0
   -2.8455   -2.0931   -0.6061 C   0  0  0  0  0  0  0  0  0  0  0  0
    3.1314   -0.2494   -0.4073 C   0  0  0  0  0  0  0  0  0  0  0  0
    3.9092   -0.6345    0.8389 C   0  0  0  0  0  0  0  0  0  0  0  0
   -4.1090   -2.5432    0.1227 C   0  0  0  0  0  0  0  0  0  0  0  0
   -2.0867   -3.2878   -1.1714 C   0  0  0  0  0  0  0  0  0  0  0  0
    3.3907   -1.9620    1.3792 C   0  0  0  0  0  0  0  0  0  0  0  0
    5.4045   -0.7121    0.5414 C   0  0  0  0  0  0  0  0  0  0  0  0
   -0.2748    0.5157    1.1626 H   0  0  0  0  0  0  0  0  0  0  0  0
   -2.7013    0.7588    1.5707 H   0  0  0  0  0  0  0  0  0  0  0  0
    0.8531    0.0235   -1.6907 H   0  0  0  0  0  0  0  0  0  0  0  0
    1.7946    1.5159   -1.8177 H   0  0  0  0  0  0  0  0  0  0  0  0
   -1.4378    3.0862   -1.6297 H   0  0  0  0  0  0  0  0  0  0  0  0
   -1.4665    1.4045   -2.2533 H   0  0  0  0  0  0  0  0  0  0  0  0
   -0.1628    2.5042   -2.6352 H   0  0  0  0  0  0  0  0  0  0  0  0
   -0.1451    3.8021    0.1346 H   0  0  0  0  0  0  0  0  0  0  0  0
    1.4166    3.3434   -0.4271 H   0  0  0  0  0  0  0  0  0  0  0  0
    0.8919    2.7221    1.1222 H   0  0  0  0  0  0  0  0  0  0  0  0
   -4.1926    2.0114    0.3609 H   0  0  0  0  0  0  0  0  0  0  0  0
   -3.3185    1.2549   -0.9508 H   0  0  0  0  0  0  0  0  0  0  0  0
   -3.0275    2.9661   -0.4925 H   0  0  0  0  0  0  0  0  0  0  0  0
   -1.7251    3.6241    1.2487 H   0  0  0  0  0  0  0  0  0  0  0  0
   -2.6075    2.8522    2.5166 H   0  0  0  0  0  0  0  0  0  0  0  0
   -0.9044    2.4959    2.3924 H   0  0  0  0  0  0  0  0  0  0  0  0
   -3.1547   -1.4335   -1.4266 H   0  0  0  0  0  0  0  0  0  0  0  0
    3.7615    0.1506    1.5909 H   0  0  0  0  0  0  0  0  0  0  0  0
   -3.8756   -3.2281    0.9453 H   0  0  0  0  0  0  0  0  0  0  0  0
   -4.6369   -1.6830    0.5491 H   0  0  0  0  0  0  0  0  0  0  0  0
   -4.7922   -3.0557   -0.5626 H   0  0  0  0  0  0  0  0  0  0  0  0
   -1.1924   -2.9599   -1.7126 H   0  0  0  0  0  0  0  0  0  0  0  0
   -1.7576   -3.9633   -0.3740 H   0  0  0  0  0  0  0  0  0  0  0  0
   -2.7133   -3.8568   -1.8658 H   0  0  0  0  0  0  0  0  0  0  0  0
    3.9194   -2.2454    2.2949 H   0  0  0  0  0  0  0  0  0  0  0  0
    3.5182   -2.7666    0.6465 H   0  0  0  0  0  0  0  0  0  0  0  0
    2.3220   -1.8967    1.6109 H   0  0  0  0  0  0  0  0  0  0  0  0
    5.9720   -0.9257    1.4530 H   0  0  0  0  0  0  0  0  0  0  0  0
    5.7676    0.2357    0.1292 H   0  0  0  0  0  0  0  0  0  0  0  0
    5.6281   -1.4970   -0.1896 H   0  0  0  0  0  0  0  0  0  0  0  0
  1  6  1  0  0  0  0
  1 13  1  0  0  0  0
  2  8  1  0  0  0  0
  2 15  1  0  0  0  0
  3 13  2  0  0  0  0
  4 15  2  0  0  0  0
  5  6  1  0  0  0  0
  5  8  1  0  0  0  0
  5  9  1  0  0  0  0
  5 10  1  0  0  0  0
  6  7  1  0  0  0  0
  6 21  1  0  0  0  0
  7 11  1  0  0  0  0
  7 12  1  0  0  0  0
  7 22  1  0  0  0  0
  8 23  1  0  0  0  0
  8 24  1  0  0  0  0
  9 25  1  0  0  0  0
  9 26  1  0  0  0  0
  9 27  1  0  0  0  0
 10 28  1  0  0  0  0
 10 29  1  0  0  0  0
 10 30  1  0  0  0  0
 11 31  1  0  0  0  0
 11 32  1  0  0  0  0
 11 33  1  0  0  0  0
 12 34  1  0  0  0  0
 12 35  1  0  0  0  0
 12 36  1  0  0  0  0
 13 14  1  0  0  0  0
 14 17  1  0  0  0  0
 14 18  1  0  0  0  0
 14 37  1  0  0  0  0
 15 16  1  0  0  0  0
 16 19  1  0  0  0  0
 16 20  1  0  0  0  0
 16 38  1  0  0  0  0
 17 39  1  0  0  0  0
 17 40  1  0  0  0  0
 17 41  1  0  0  0  0
 18 42  1  0  0  0  0
 18 43  1  0  0  0  0
 18 44  1  0  0  0  0
 19 45  1  0  0  0  0
 19 46  1  0  0  0  0
 19 47  1  0  0  0  0
 20 48  1  0  0  0  0
 20 49  1  0  0  0  0
 20 50  1  0  0  0  0
M  END
> <PUBCHEM_COMPOUND_CID>
23284

> <PUBCHEM_CONFORMER_RMSD>
0.8

> <PUBCHEM_CONFORMER_DIVERSEORDER>
1
43
108
82
105
90
60
99
42
112
37
89
6
100
71
80
109
96
21
76
25
44
101
38
84
78
51
102
113
98
86
34
47
8
72
7
106
18
67
17
29
91
3
35
92
81
62
19
50
23
70
41
111
49
83
64
24
45
30
15
5
65
66
107
2
95
22
85
40
55
93
103
110
57
73
63
53
77
114
12
56
32
75
79
87
68
52
28
11
54
88
39
69
74
58
33
20
31
36
14
13
26
9
10
59
46
16
104
27
4
94
48
97
61

> <PUBCHEM_MMFF94_PARTIAL_CHARGES>
10
1 -0.43
13 0.66
14 0.06
15 0.66
16 0.06
2 -0.43
3 -0.57
4 -0.57
6 0.28
8 0.28

> <PUBCHEM_EFFECTIVE_ROTOR_COUNT>
9

> <PUBCHEM_PHARMACOPHORE_FEATURES>
6
1 3 acceptor
1 4 acceptor
3 14 17 18 hydrophobe
3 16 19 20 hydrophobe
3 5 9 10 hydrophobe
3 7 11 12 hydrophobe

> <PUBCHEM_HEAVY_ATOM_COUNT>
20

> <PUBCHEM_ATOM_DEF_STEREO_COUNT>
0

> <PUBCHEM_ATOM_UDEF_STEREO_COUNT>
1

> <PUBCHEM_BOND_DEF_STEREO_COUNT>
0

> <PUBCHEM_BOND_UDEF_STEREO_COUNT>
0

> <PUBCHEM_ISOTOPIC_ATOM_COUNT>
0

> <PUBCHEM_COMPONENT_COUNT>
1

> <PUBCHEM_CACTVS_TAUTO_COUNT>
1

> <PUBCHEM_CONFORMER_ID>
00005AF400000001

> <PUBCHEM_MMFF94_ENERGY>
57.1097

> <PUBCHEM_FEATURE_SELFOVERLAP>
30.452

> <PUBCHEM_SHAPE_FINGERPRINT>
10366900 7 17560222627802005520
11265709 11 18339923834780058115
11552529 35 18201428173878378594
11725454 13 15265118492816742859
12422481 6 18124062095020888195
12553582 1 18197230332403319150
12633257 1 18059581247909284560
12788726 201 18269007525380082739
12824470 246 18334007324013994466
13004483 165 18340761654150631231
13083527 12 17982436398189887580
13140716 1 18411140238167351480
13583140 156 16845566488149497682
13931106 250 18189316992730930332
14178342 30 18270685268724009526
20291156 8 18337106890311348934
20600515 1 17059231404436248619
20602899 9 18049981343273417733
20626108 58 17342653697844444791
20671657 53 18042682982445323735
20681651 13 18263348210636517040
21421861 104 18123479529339804993
21452121 199 18055625376707486497
23184049 29 18270120243895195769
23419403 2 17983827216075059893
23557571 272 18343861126248745362
23559900 14 18270387399504072712
23728640 28 18341052926095632251
25147074 1 18262818361553330292
257057 1 18054787549137219589
266924 78 16739210938726888133
58807428 26 17766573352001237905
6338986 31 18266455597451735807
81228 2 18336272279291336818
85463 6 18341320184751847990

> <PUBCHEM_SHAPE_MULTIPOLES>
388.11
7.78
3.86
1.53
9.39
0.42
0.02
5.48
-1.45
-4.16
0.06
0.03
-0.34
-1.24

> <PUBCHEM_SHAPE_SELFOVERLAP>
747.548

> <PUBCHEM_SHAPE_VOLUME>
238.4

> <PUBCHEM_COORDINATE_TYPE>
2
5
10

$$$$
14794
  -OEChem-04272217072D

  5  0  0     0  0  0  0  0  0999 V2000
    2.8660    0.2500    0.0000 Sb  0  1  0  0  0  0  0  0  0  0  0  0
    4.5981    0.2500    0.0000 Sb  0  1  0  0  0  0  0  0  0  0  0  0
    3.7320    0.7500    0.0000 O   0  6  0  0  0  0  0  0  0  0  0  0
    2.0000    0.7500    0.0000 O   0  6  0  0  0  0  0  0  0  0  0  0
    2.8660   -0.7500    0.0000 O   0  6  0  0  0  0  0  0  0  0  0  0
M  CHG  5   1   3   2   3   3  -2   4  -2   5  -2
M  END
> <PUBCHEM_COMPOUND_CID>
14794

> <PUBCHEM_COMPOUND_CANONICALIZED>
1

> <PUBCHEM_CACTVS_COMPLEXITY>
0

> <PUBCHEM_CACTVS_HBOND_ACCEPTOR>
3

> <PUBCHEM_CACTVS_HBOND_DONOR>
0

> <PUBCHEM_CACTVS_ROTATABLE_BOND>
0

> <PUBCHEM_CACTVS_SUBSKEYS>
AAADcQAAMAAAAAAAAABAAAAAAAAAAAAAAAAAAAAAAAAAAAAAAAAAAAAAAAAAAAAAAAAAAAAAAAAAAAAAAAAAAAAAAAAAAAAAAAAAAAAAAAAAAAAAAAAAAAAAAAAAAAAAAAAAAAAAAAAAAAAAAAAAAAAAAA==

> <PUBCHEM_IUPAC_OPENEYE_NAME>
antimony(3+);oxygen(2-)

> <PUBCHEM_IUPAC_CAS_NAME>
antimony(3+);oxygen(2-)

> <PUBCHEM_IUPAC_NAME_MARKUP>
antimony(3+);oxygen(2-)

> <PUBCHEM_IUPAC_NAME>
antimony(3+);oxygen(2-)

> <PUBCHEM_IUPAC_SYSTEMATIC_NAME>
antimony(3+);oxygen(2-)

> <PUBCHEM_IUPAC_TRADITIONAL_NAME>
antimony(3+);oxygen(2-)

> <PUBCHEM_IUPAC_INCHI>
InChI=1S/3O.2Sb/q3*-2;2*+3

> <PUBCHEM_IUPAC_INCHIKEY>
GHPGOEFPKIHBNM-UHFFFAOYSA-N

> <PUBCHEM_EXACT_MASS>
291.79277

> <PUBCHEM_MOLECULAR_FORMULA>
O3Sb2

> <PUBCHEM_MOLECULAR_WEIGHT>
291.52

> <PUBCHEM_OPENEYE_CAN_SMILES>
[O-2].[O-2].[O-2].[Sb+3].[Sb+3]

> <PUBCHEM_OPENEYE_ISO_SMILES>
[O-2].[O-2].[O-2].[Sb+3].[Sb+3]

> <PUBCHEM_CACTVS_TPSA>
3

> <PUBCHEM_MONOISOTOPIC_WEIGHT>
289.79237

> <PUBCHEM_TOTAL_CHARGE>
0

> <PUBCHEM_HEAVY_ATOM_COUNT>
5

> <PUBCHEM_ATOM_DEF_STEREO_COUNT>
0

> <PUBCHEM_ATOM_UDEF_STEREO_COUNT>
0

> <PUBCHEM_BOND_DEF_STEREO_COUNT>
0

> <PUBCHEM_BOND_UDEF_STEREO_COUNT>
0

> <PUBCHEM_ISOTOPIC_ATOM_COUNT>
0

> <PUBCHEM_COMPONENT_COUNT>
5

> <PUBCHEM_CACTVS_TAUTO_COUNT>
1

> <PUBCHEM_COORDINATE_TYPE>
1
5
255

$$$$
8697
  -OEChem-04272217123D

 26 25  0     1  0  0  0  0  0999 V2000
   -1.2508   -1.8467    0.9194 O   0  0  0  0  0  0  0  0  0  0  0  0
   -1.1731   -1.3509   -1.2901 O   0  0  0  0  0  0  0  0  0  0  0  0
   -0.8334    0.4476    0.2917 C   0  0  1  0  0  0  0  0  0  0  0  0
    0.5341    0.9421   -0.2148 C   0  0  0  0  0  0  0  0  0  0  0  0
    1.7401    0.1182    0.2574 C   0  0  0  0  0  0  0  0  0  0  0  0
   -1.9572    1.3904   -0.1745 C   0  0  0  0  0  0  0  0  0  0  0  0
    3.1007    0.5523   -0.2928 C   0  0  0  0  0  0  0  0  0  0  0  0
   -1.1005   -0.9914   -0.1206 C   0  0  0  0  0  0  0  0  0  0  0  0
   -3.3268    0.9829    0.3534 C   0  0  0  0  0  0  0  0  0  0  0  0
    4.2669   -0.2444    0.2708 C   0  0  0  0  0  0  0  0  0  0  0  0
   -0.8078    0.4742    1.3898 H   0  0  0  0  0  0  0  0  0  0  0  0
    0.6802    1.9830    0.1004 H   0  0  0  0  0  0  0  0  0  0  0  0
    0.5301    0.9466   -1.3126 H   0  0  0  0  0  0  0  0  0  0  0  0
    1.5887   -0.9343   -0.0113 H   0  0  0  0  0  0  0  0  0  0  0  0
    1.7735    0.1542    1.3538 H   0  0  0  0  0  0  0  0  0  0  0  0
   -1.7402    2.4115    0.1615 H   0  0  0  0  0  0  0  0  0  0  0  0
   -1.9967    1.4145   -1.2705 H   0  0  0  0  0  0  0  0  0  0  0  0
    3.0959    0.4565   -1.3849 H   0  0  0  0  0  0  0  0  0  0  0  0
    3.2579    1.6138   -0.0679 H   0  0  0  0  0  0  0  0  0  0  0  0
   -3.3250    0.9282    1.4466 H   0  0  0  0  0  0  0  0  0  0  0  0
   -4.0785    1.7198    0.0528 H   0  0  0  0  0  0  0  0  0  0  0  0
   -3.6387    0.0112   -0.0415 H   0  0  0  0  0  0  0  0  0  0  0  0
    5.2105    0.1079   -0.1572 H   0  0  0  0  0  0  0  0  0  0  0  0
    4.1617   -1.3083    0.0364 H   0  0  0  0  0  0  0  0  0  0  0  0
    4.3243   -0.1363    1.3585 H   0  0  0  0  0  0  0  0  0  0  0  0
   -1.4207   -2.7644    0.6174 H   0  0  0  0  0  0  0  0  0  0  0  0
  1  8  1  0  0  0  0
  1 26  1  0  0  0  0
  2  8  2  0  0  0  0
  3  4  1  0  0  0  0
  3  6  1  0  0  0  0
  3  8  1  0  0  0  0
  3 11  1  0  0  0  0
  4  5  1  0  0  0  0
  4 12  1  0  0  0  0
  4 13  1  0  0  0  0
  5  7  1  0  0  0  0
  5 14  1  0  0  0  0
  5 15  1  0  0  0  0
  6  9  1  0  0  0  0
  6 16  1  0  0  0  0
  6 17  1  0  0  0  0
  7 10  1  0  0  0  0
  7 18  1  0  0  0  0
  7 19  1  0  0  0  0
  9 20  1  0  0  0  0
  9 21  1  0  0  0  0
  9 22  1  0  0  0  0
 10 23  1  0  0  0  0
 10 24  1  0  0  0  0
 10 25  1  0  0  0  0
M  END
> <PUBCHEM_COMPOUND_CID>
8697

> <PUBCHEM_CONFORMER_RMSD>
0.6

> <PUBCHEM_CONFORMER_DIVERSEORDER>
2
45
75
35
28
86
66
24
4
25
81
41
78
39
64
79
59
30
85
20
65
50
37
69
83
54
52
72
48
10
22
71
82
67
36
63
42
76
8
70
33
60
13
74
56
77
26
80
11
58
15
57
68
23
38
53
62
9
43
84
51
73
18
61
3
34
32
1
29
49
31
55
47
21
6
12
7
44
46
17
19
27
40
16
14
5

> <PUBCHEM_MMFF94_PARTIAL_CHARGES>
5
1 -0.65
2 -0.57
26 0.5
3 0.06
8 0.66

> <PUBCHEM_EFFECTIVE_ROTOR_COUNT>
5

> <PUBCHEM_PHARMACOPHORE_FEATURES>
6
1 1 acceptor
1 10 hydrophobe
1 2 acceptor
1 9 hydrophobe
3 1 2 8 anion
5 3 4 5 6 7 hydrophobe

> <PUBCHEM_HEAVY_ATOM_COUNT>
10

> <PUBCHEM_ATOM_DEF_STEREO_COUNT>
0

> <PUBCHEM_ATOM_UDEF_STEREO_COUNT>
1

> <PUBCHEM_BOND_DEF_STEREO_COUNT>
0

> <PUBCHEM_BOND_UDEF_STEREO_COUNT>
0

> <PUBCHEM_ISOTOPIC_ATOM_COUNT>
0

> <PUBCHEM_COMPONENT_COUNT>
1

> <PUBCHEM_CACTVS_TAUTO_COUNT>
1

> <PUBCHEM_CONFORMER_ID>
000021F900000002

> <PUBCHEM_MMFF94_ENERGY>
4.9777

> <PUBCHEM_FEATURE_SELFOVERLAP>
30.507

> <PUBCHEM_SHAPE_FINGERPRINT>
11062470 55 15410890739030741280
12932764 1 16009019623239151928
13380535 76 18412263900237756430
14325111 11 18338800000879260841
14577589 140 18343867723144087870
14993402 34 18260261936989234253
15310529 11 14779533574517917496
20279233 1 17346602967691096060
20645464 45 18060424603265828676
20871998 184 18271533099209714535
23235685 24 18343017748863248529
23380061 50 17560788953615402944
23402539 116 17917138416956277221
23552423 10 18043532935067164572
3248919 1 18115298003572934172
366044 4 18273213058772421221
528862 383 17751071410332698251
6333449 129 18202558492747217661

> <PUBCHEM_SHAPE_MULTIPOLES>
194.06
5.9
1.55
0.84
5.61
0.55
0.1
-1.19
-0.6
-1.13
-0.01
-0.2
0.26
-0.16

> <PUBCHEM_SHAPE_SELFOVERLAP>
352.795

> <PUBCHEM_SHAPE_VOLUME>
124.6

> <PUBCHEM_COORDINATE_TYPE>
2
5
10

$$$$
18692
  -OEChem-04272217173D

 19 18  0     0  0  0  0  0  0999 V2000
    2.2204    1.8900   -0.0478 Br  0  0  0  0  0  0  0  0  0  0  0  0
   -2.0786    2.0486    0.0420 Br  0  0  0  0  0  0  0  0  0  0  0  0
    1.6672   -1.8453    0.0751 O   0  0  0  0  0  0  0  0  0  0  0  0
   -1.7910   -1.7530   -0.0798 O   0  0  0  0  0  0  0  0  0  0  0  0
   -0.0021   -0.0438    0.0012 C   0  0  0  0  0  0  0  0  0  0  0  0
    0.8863   -0.9704    0.8818 C   0  0  0  0  0  0  0  0  0  0  0  0
   -0.9516   -0.9189   -0.8711 C   0  0  0  0  0  0  0  0  0  0  0  0
    0.9103    0.7653   -0.9520 C   0  0  0  0  0  0  0  0  0  0  0  0
   -0.8610    0.8276    0.9506 C   0  0  0  0  0  0  0  0  0  0  0  0
    1.5581   -0.4050    1.5346 H   0  0  0  0  0  0  0  0  0  0  0  0
    0.2613   -1.5924    1.5330 H   0  0  0  0  0  0  0  0  0  0  0  0
   -0.3659   -1.5819   -1.5181 H   0  0  0  0  0  0  0  0  0  0  0  0
   -1.5806   -0.3231   -1.5402 H   0  0  0  0  0  0  0  0  0  0  0  0
    0.3378    1.4391   -1.5961 H   0  0  0  0  0  0  0  0  0  0  0  0
    1.4951    0.1099   -1.6059 H   0  0  0  0  0  0  0  0  0  0  0  0
   -1.4883    0.2217    1.6120 H   0  0  0  0  0  0  0  0  0  0  0  0
   -0.2410    1.4618    1.5913 H   0  0  0  0  0  0  0  0  0  0  0  0
    2.1862   -2.4031    0.6792 H   0  0  0  0  0  0  0  0  0  0  0  0
   -2.4976   -1.1958    0.2873 H   0  0  0  0  0  0  0  0  0  0  0  0
  1  8  1  0  0  0  0
  2  9  1  0  0  0  0
  3  6  1  0  0  0  0
  3 18  1  0  0  0  0
  4  7  1  0  0  0  0
  4 19  1  0  0  0  0
  5  6  1  0  0  0  0
  5  7  1  0  0  0  0
  5  8  1  0  0  0  0
  5  9  1  0  0  0  0
  6 10  1  0  0  0  0
  6 11  1  0  0  0  0
  7 12  1  0  0  0  0
  7 13  1  0  0  0  0
  8 14  1  0  0  0  0
  8 15  1  0  0  0  0
  9 16  1  0  0  0  0
  9 17  1  0  0  0  0
M  END
> <PUBCHEM_COMPOUND_CID>
18692

> <PUBCHEM_CONFORMER_RMSD>
0.6

> <PUBCHEM_CONFORMER_DIVERSEORDER>
1
10
24
37
3
11
39
18
22
2
26
4
30
35
27
16
7
31
8
38
17
33
6
40
25
5
15
20
34
36
13
29
28
19
14
32
23
12
9
21

> <PUBCHEM_MMFF94_PARTIAL_CHARGES>
10
1 -0.23
18 0.4
19 0.4
2 -0.23
3 -0.68
4 -0.68
6 0.28
7 0.28
8 0.23
9 0.23

> <PUBCHEM_EFFECTIVE_ROTOR_COUNT>
4

> <PUBCHEM_PHARMACOPHORE_FEATURES>
6
1 1 hydrophobe
1 2 hydrophobe
1 3 acceptor
1 3 donor
1 4 acceptor
1 4 donor

> <PUBCHEM_HEAVY_ATOM_COUNT>
9

> <PUBCHEM_ATOM_DEF_STEREO_COUNT>
0

> <PUBCHEM_ATOM_UDEF_STEREO_COUNT>
0

> <PUBCHEM_BOND_DEF_STEREO_COUNT>
0

> <PUBCHEM_BOND_UDEF_STEREO_COUNT>
0

> <PUBCHEM_ISOTOPIC_ATOM_COUNT>
0

> <PUBCHEM_COMPONENT_COUNT>
1

> <PUBCHEM_CACTVS_TAUTO_COUNT>
1

> <PUBCHEM_CONFORMER_ID>
0000490400000001

> <PUBCHEM_MMFF94_ENERGY>
25.1486

> <PUBCHEM_FEATURE_SELFOVERLAP>
30.446

> <PUBCHEM_SHAPE_FINGERPRINT>
10219947 1 17617943534758412169
12423570 1 12820433587158080120
137420 1 15451222792743005426
14993402 34 17979073782193835532
15219459 52 18195525887537389109
21040471 1 18270400469147193121
22082395 3 17617377719966930216
29004967 10 16910620428845652830
5084963 1 17904808557802147220
68250623 7 18410300198171624486

> <PUBCHEM_SHAPE_MULTIPOLES>
185.36
2.79
2.54
1
0.05
0.09
0
1.3
-0.01
-0.05
0
0
0
-0.4

> <PUBCHEM_SHAPE_SELFOVERLAP>
315.367

> <PUBCHEM_SHAPE_VOLUME>
128.9

> <PUBCHEM_COORDINATE_TYPE>
2
5
10

$$$$
8554
  -OEChem-04272217233D

 24 24  0     0  0  0  0  0  0999 V2000
    2.1516   -0.6114    0.9395 O   0  0  0  0  0  0  0  0  0  0  0  0
   -2.2187   -1.4775    0.4119 O   0  0  0  0  0  0  0  0  0  0  0  0
    2.1521   -0.4593   -1.3481 O   0  0  0  0  0  0  0  0  0  0  0  0
   -0.3606   -1.8922   -0.8655 O   0  0  0  0  0  0  0  0  0  0  0  0
    0.5529    0.7763   -0.1132 C   0  0  0  0  0  0  0  0  0  0  0  0
   -0.7628    0.3133   -0.1019 C   0  0  0  0  0  0  0  0  0  0  0  0
    0.8135    2.1405    0.0162 C   0  0  0  0  0  0  0  0  0  0  0  0
   -1.8181    1.2146    0.0385 C   0  0  0  0  0  0  0  0  0  0  0  0
   -0.2418    3.0418    0.1567 C   0  0  0  0  0  0  0  0  0  0  0  0
   -1.5576    2.5787    0.1677 C   0  0  0  0  0  0  0  0  0  0  0  0
    1.6766   -0.1400   -0.2582 C   0  0  0  0  0  0  0  0  0  0  0  0
   -1.0672   -1.1055   -0.2348 C   0  0  0  0  0  0  0  0  0  0  0  0
    3.2576   -1.5185    0.8697 C   0  0  0  0  0  0  0  0  0  0  0  0
   -2.5777   -2.8608    0.3215 C   0  0  0  0  0  0  0  0  0  0  0  0
    1.8345    2.5135    0.0088 H   0  0  0  0  0  0  0  0  0  0  0  0
   -2.8542    0.8861    0.0386 H   0  0  0  0  0  0  0  0  0  0  0  0
   -0.0392    4.1041    0.2567 H   0  0  0  0  0  0  0  0  0  0  0  0
   -2.3792    3.2812    0.2741 H   0  0  0  0  0  0  0  0  0  0  0  0
    4.1186   -1.0296    0.4043 H   0  0  0  0  0  0  0  0  0  0  0  0
    2.9742   -2.4169    0.3133 H   0  0  0  0  0  0  0  0  0  0  0  0
    3.5256   -1.8066    1.8897 H   0  0  0  0  0  0  0  0  0  0  0  0
   -1.7966   -3.4838    0.7672 H   0  0  0  0  0  0  0  0  0  0  0  0
   -2.7472   -3.1396   -0.7228 H   0  0  0  0  0  0  0  0  0  0  0  0
   -3.5061   -3.0079    0.8797 H   0  0  0  0  0  0  0  0  0  0  0  0
  1 11  1  0  0  0  0
  1 13  1  0  0  0  0
  2 12  1  0  0  0  0
  2 14  1  0  0  0  0
  3 11  2  0  0  0  0
  4 12  2  0  0  0  0
  5  6  1  0  0  0  0
  5  7  2  0  0  0  0
  5 11  1  0  0  0  0
  6  8  2  0  0  0  0
  6 12  1  0  0  0  0
  7  9  1  0  0  0  0
  7 15  1  0  0  0  0
  8 10  1  0  0  0  0
  8 16  1  0  0  0  0
  9 10  2  0  0  0  0
  9 17  1  0  0  0  0
 10 18  1  0  0  0  0
 13 19  1  0  0  0  0
 13 20  1  0  0  0  0
 13 21  1  0  0  0  0
 14 22  1  0  0  0  0
 14 23  1  0  0  0  0
 14 24  1  0  0  0  0
M  END
> <PUBCHEM_COMPOUND_CID>
8554

> <PUBCHEM_CONFORMER_RMSD>
0.6

> <PUBCHEM_CONFORMER_DIVERSEORDER>
1
9
2
8
7
3
4
6
5

> <PUBCHEM_MMFF94_PARTIAL_CHARGES>
18
1 -0.43
10 -0.15
11 0.63
12 0.63
13 0.28
14 0.28
15 0.15
16 0.15
17 0.15
18 0.15
2 -0.43
3 -0.57
4 -0.57
5 0.09
6 0.09
7 -0.15
8 -0.15
9 -0.15

> <PUBCHEM_EFFECTIVE_ROTOR_COUNT>
4

> <PUBCHEM_PHARMACOPHORE_FEATURES>
3
1 3 acceptor
1 4 acceptor
6 5 6 7 8 9 10 rings

> <PUBCHEM_HEAVY_ATOM_COUNT>
14

> <PUBCHEM_ATOM_DEF_STEREO_COUNT>
0

> <PUBCHEM_ATOM_UDEF_STEREO_COUNT>
0

> <PUBCHEM_BOND_DEF_STEREO_COUNT>
0

> <PUBCHEM_BOND_UDEF_STEREO_COUNT>
0

> <PUBCHEM_ISOTOPIC_ATOM_COUNT>
0

> <PUBCHEM_COMPONENT_COUNT>
1

> <PUBCHEM_CACTVS_TAUTO_COUNT>
1

> <PUBCHEM_CONFORMER_ID>
0000216A00000001

> <PUBCHEM_MMFF94_ENERGY>
47.589

> <PUBCHEM_FEATURE_SELFOVERLAP>
15.225

> <PUBCHEM_SHAPE_FINGERPRINT>
1 1 17114096664746177604
10980938 120 17548142585552606923
11680986 33 18267568264606816841
12423570 1 13946131716627444700
13538477 17 18188497865347848150
14817 1 13668177904334362326
15279308 132 17621321230400354438
15502708 68 17258777551865695609
161256 15 17979929520226360021
16945 1 18266748973714323341
19021347 4 17906449922587999499
193761 8 18339079418577446029
20510252 161 17911511004818296824
20645476 183 17826818952661345852
20645477 70 17621323867700737223
20871998 184 18272081661107077206
20871998 22 18197509621267705390
21650355 55 18264750117747010570
2334 1 18268151053198521765
23402539 116 18054203480645215165
23559900 14 17840591389005984790
257057 1 18266164192473778483
2748010 2 18341611576718237901
3071541 236 18192143794007249515
43471831 8 17471851403253311051
528862 383 17620194673221077719
54173680 148 18337952294525452090
58807428 26 17473819528945659227
7364860 26 17550965014430971559
81228 2 18341892944288825233

> <PUBCHEM_SHAPE_MULTIPOLES>
264.64
3.64
3.57
0.87
0.82
4.43
0.09
-2.73
-0.76
0.31
-0.41
0.48
-0.14
0.18

> <PUBCHEM_SHAPE_SELFOVERLAP>
552.853

> <PUBCHEM_SHAPE_VOLUME>
150.9

> <PUBCHEM_COORDINATE_TYPE>
2
5
10

$$$$
24261
  -OEChem-04272216593D

  3  2  0     0  0  0  0  0  0999 V2000
    0.0000   -0.5548    0.0000 Si  0  0  0  0  0  0  0  0  0  0  0  0
    1.2172    0.2774    0.0000 O   0  0  0  0  0  0  0  0  0  0  0  0
   -1.2171    0.2774    0.0000 O   0  0  0  0  0  0  0  0  0  0  0  0
  1  2  2  0  0  0  0
  1  3  2  0  0  0  0
M  END
> <PUBCHEM_COMPOUND_CID>
24261

> <PUBCHEM_CONFORMER_RMSD>
0.4

> <PUBCHEM_CONFORMER_DIVERSEORDER>
1

> <PUBCHEM_EFFECTIVE_ROTOR_COUNT>
0

> <PUBCHEM_PHARMACOPHORE_FEATURES>
0

> <PUBCHEM_HEAVY_ATOM_COUNT>
3

> <PUBCHEM_ATOM_DEF_STEREO_COUNT>
0

> <PUBCHEM_ATOM_UDEF_STEREO_COUNT>
0

> <PUBCHEM_BOND_DEF_STEREO_COUNT>
0

> <PUBCHEM_BOND_UDEF_STEREO_COUNT>
0

> <PUBCHEM_ISOTOPIC_ATOM_COUNT>
0

> <PUBCHEM_COMPONENT_COUNT>
1

> <PUBCHEM_CACTVS_TAUTO_COUNT>
1

> <PUBCHEM_CONFORMER_ID>
00005EC500000001

> <PUBCHEM_MMFF94_ENERGY>
0

> <PUBCHEM_FEATURE_SELFOVERLAP>
0

> <PUBCHEM_SHAPE_FINGERPRINT>
139733 1 18410856559639809063
21015797 1 18409445924902601294
5943 1 15288196412375154626

> <PUBCHEM_SHAPE_MULTIPOLES>
68.21
1.39
0.92
0.75
0
0.25
0
-0.21
0
0
0
0
0.09
0

> <PUBCHEM_SHAPE_SELFOVERLAP>
106.08

> <PUBCHEM_SHAPE_VOLUME>
48.8

> <PUBCHEM_COORDINATE_TYPE>
2
5
10

$$$$
784
  -OEChem-04272217273D

  4  3  0     0  0  0  0  0  0999 V2000
    0.7247    0.0000    0.0000 O   0  0  0  0  0  0  0  0  0  0  0  0
   -0.7247    0.0000    0.0000 O   0  0  0  0  0  0  0  0  0  0  0  0
    0.8233   -0.7000   -0.6676 H   0  0  0  0  0  0  0  0  0  0  0  0
   -0.8233   -0.6175    0.7446 H   0  0  0  0  0  0  0  0  0  0  0  0
  1  2  1  0  0  0  0
  1  3  1  0  0  0  0
  2  4  1  0  0  0  0
M  END
> <PUBCHEM_COMPOUND_CID>
784

> <PUBCHEM_CONFORMER_RMSD>
0.4

> <PUBCHEM_CONFORMER_DIVERSEORDER>
1

> <PUBCHEM_MMFF94_PARTIAL_CHARGES>
4
1 -0.4
2 -0.4
3 0.4
4 0.4

> <PUBCHEM_EFFECTIVE_ROTOR_COUNT>
0

> <PUBCHEM_PHARMACOPHORE_FEATURES>
0

> <PUBCHEM_HEAVY_ATOM_COUNT>
2

> <PUBCHEM_ATOM_DEF_STEREO_COUNT>
0

> <PUBCHEM_ATOM_UDEF_STEREO_COUNT>
0

> <PUBCHEM_BOND_DEF_STEREO_COUNT>
0

> <PUBCHEM_BOND_UDEF_STEREO_COUNT>
0

> <PUBCHEM_ISOTOPIC_ATOM_COUNT>
0

> <PUBCHEM_COMPONENT_COUNT>
1

> <PUBCHEM_CACTVS_TAUTO_COUNT>
1

> <PUBCHEM_CONFORMER_ID>
0000031000000001

> <PUBCHEM_MMFF94_ENERGY>
-1.9277

> <PUBCHEM_FEATURE_SELFOVERLAP>
0

> <PUBCHEM_SHAPE_FINGERPRINT>
260 1 8574713502780882945

> <PUBCHEM_SHAPE_MULTIPOLES>
29.42
1.02
0.49
0.49
0
0
0
0
0
0
0
0
0
0

> <PUBCHEM_SHAPE_SELFOVERLAP>
37.756

> <PUBCHEM_SHAPE_VOLUME>
24.6

> <PUBCHEM_COORDINATE_TYPE>
2
5
10

$$$$
7923
  -OEChem-04272217033D

  9  9  0     0  0  0  0  0  0999 V2000
    0.0000    0.9555   -0.0003 O   0  0  0  0  0  0  0  0  0  0  0  0
    2.2671    0.5567    0.0002 O   0  0  0  0  0  0  0  0  0  0  0  0
   -2.2672    0.5566   -0.0001 O   0  0  0  0  0  0  0  0  0  0  0  0
    0.6637   -1.2108   -0.0003 C   0  0  0  0  0  0  0  0  0  0  0  0
   -0.6635   -1.2107    0.0002 C   0  0  0  0  0  0  0  0  0  0  0  0
    1.1109    0.1764   -0.0001 C   0  0  0  0  0  0  0  0  0  0  0  0
   -1.1109    0.1763    0.0003 C   0  0  0  0  0  0  0  0  0  0  0  0
    1.3162   -2.0671   -0.0006 H   0  0  0  0  0  0  0  0  0  0  0  0
   -1.3159   -2.0671    0.0002 H   0  0  0  0  0  0  0  0  0  0  0  0
  1  6  1  0  0  0  0
  1  7  1  0  0  0  0
  2  6  2  0  0  0  0
  3  7  2  0  0  0  0
  4  5  2  0  0  0  0
  4  6  1  0  0  0  0
  4  8  1  0  0  0  0
  5  7  1  0  0  0  0
  5  9  1  0  0  0  0
M  END
> <PUBCHEM_COMPOUND_CID>
7923

> <PUBCHEM_CONFORMER_RMSD>
0.4

> <PUBCHEM_CONFORMER_DIVERSEORDER>
1

> <PUBCHEM_MMFF94_PARTIAL_CHARGES>
9
1 -0.3
2 -0.57
3 -0.57
4 -0.14
5 -0.14
6 0.71
7 0.71
8 0.15
9 0.15

> <PUBCHEM_EFFECTIVE_ROTOR_COUNT>
0.2

> <PUBCHEM_PHARMACOPHORE_FEATURES>
3
1 2 acceptor
1 3 acceptor
5 1 4 5 6 7 rings

> <PUBCHEM_HEAVY_ATOM_COUNT>
7

> <PUBCHEM_ATOM_DEF_STEREO_COUNT>
0

> <PUBCHEM_ATOM_UDEF_STEREO_COUNT>
0

> <PUBCHEM_BOND_DEF_STEREO_COUNT>
0

> <PUBCHEM_BOND_UDEF_STEREO_COUNT>
0

> <PUBCHEM_ISOTOPIC_ATOM_COUNT>
0

> <PUBCHEM_COMPONENT_COUNT>
1

> <PUBCHEM_CACTVS_TAUTO_COUNT>
1

> <PUBCHEM_CONFORMER_ID>
00001EF300000001

> <PUBCHEM_MMFF94_ENERGY>
2.6606

> <PUBCHEM_FEATURE_SELFOVERLAP>
15.223

> <PUBCHEM_SHAPE_FINGERPRINT>
16714656 1 18409172142396856260
20096714 4 18411136935126003962
21040471 1 18410856563961163106
23552423 10 18260551168893133182
29004967 10 18040726826694922025

> <PUBCHEM_SHAPE_MULTIPOLES>
126.45
2.31
1.23
0.57
0
0.35
0
-0.7
0
0
0
0
0.03
0

> <PUBCHEM_SHAPE_SELFOVERLAP>
266.99

> <PUBCHEM_SHAPE_VOLUME>
73

> <PUBCHEM_COORDINATE_TYPE>
2
5
10

$$$$
6569
  -OEChem-04272217283D

 13 12  0     0  0  0  0  0  0999 V2000
    0.4529   -1.3146    0.0031 O   0  0  0  0  0  0  0  0  0  0  0  0
   -0.7440    0.7849    0.0111 C   0  0  0  0  0  0  0  0  0  0  0  0
    0.4991   -0.0855    0.0025 C   0  0  0  0  0  0  0  0  0  0  0  0
   -2.0264   -0.0269   -0.0093 C   0  0  0  0  0  0  0  0  0  0  0  0
    1.8184    0.6421   -0.0073 C   0  0  0  0  0  0  0  0  0  0  0  0
   -0.7184    1.4081    0.9111 H   0  0  0  0  0  0  0  0  0  0  0  0
   -0.7106    1.4368   -0.8681 H   0  0  0  0  0  0  0  0  0  0  0  0
   -2.8973    0.6357   -0.0049 H   0  0  0  0  0  0  0  0  0  0  0  0
   -2.0909   -0.6824    0.8655 H   0  0  0  0  0  0  0  0  0  0  0  0
   -2.0793   -0.6561   -0.9040 H   0  0  0  0  0  0  0  0  0  0  0  0
    1.8991    1.2660    0.8863 H   0  0  0  0  0  0  0  0  0  0  0  0
    2.6388   -0.0811   -0.0085 H   0  0  0  0  0  0  0  0  0  0  0  0
    1.8898    1.2589   -0.9065 H   0  0  0  0  0  0  0  0  0  0  0  0
  1  3  2  0  0  0  0
  2  3  1  0  0  0  0
  2  4  1  0  0  0  0
  2  6  1  0  0  0  0
  2  7  1  0  0  0  0
  3  5  1  0  0  0  0
  4  8  1  0  0  0  0
  4  9  1  0  0  0  0
  4 10  1  0  0  0  0
  5 11  1  0  0  0  0
  5 12  1  0  0  0  0
  5 13  1  0  0  0  0
M  END
> <PUBCHEM_COMPOUND_CID>
6569

> <PUBCHEM_CONFORMER_RMSD>
0.4

> <PUBCHEM_CONFORMER_DIVERSEORDER>
1
4
2
3

> <PUBCHEM_MMFF94_PARTIAL_CHARGES>
4
1 -0.57
2 0.06
3 0.45
5 0.06

> <PUBCHEM_EFFECTIVE_ROTOR_COUNT>
1

> <PUBCHEM_PHARMACOPHORE_FEATURES>
2
1 1 acceptor
1 4 hydrophobe

> <PUBCHEM_HEAVY_ATOM_COUNT>
5

> <PUBCHEM_ATOM_DEF_STEREO_COUNT>
0

> <PUBCHEM_ATOM_UDEF_STEREO_COUNT>
0

> <PUBCHEM_BOND_DEF_STEREO_COUNT>
0

> <PUBCHEM_BOND_UDEF_STEREO_COUNT>
0

> <PUBCHEM_ISOTOPIC_ATOM_COUNT>
0

> <PUBCHEM_COMPONENT_COUNT>
1

> <PUBCHEM_CACTVS_TAUTO_COUNT>
3

> <PUBCHEM_CONFORMER_ID>
000019A900000001

> <PUBCHEM_MMFF94_ENERGY>
0.456

> <PUBCHEM_FEATURE_SELFOVERLAP>
10.148

> <PUBCHEM_SHAPE_FINGERPRINT>
139733 1 9222072964040683747
16714656 1 18337397161465133620
20096714 4 18411981381678860328
21015797 1 8862358934520280816
21040471 1 18338516447080064288
24536 1 18194670484829207913
29004967 10 18260276243546188329
5460574 1 9223238441944694881
5943 1 17401986467361239122

> <PUBCHEM_SHAPE_MULTIPOLES>
97.03
2.37
1.07
0.6
0.38
0.24
0
-0.38
-0.01
-0.15
0
0.01
-0.03
0

> <PUBCHEM_SHAPE_SELFOVERLAP>
167.422

> <PUBCHEM_SHAPE_VOLUME>
65.5

> <PUBCHEM_COORDINATE_TYPE>
2
5
10

$$$$
3672772
  -OEChem-04272217213D

 32 31  0     1  0  0  0  0  0999 V2000
    0.6468    0.4067   -0.0990 O   0  0  0  0  0  0  0  0  0  0  0  0
   -0.4355   -0.3110    0.5712 O   0  0  0  0  0  0  0  0  0  0  0  0
    1.8929   -1.6544   -0.1522 O   0  0  0  0  0  0  0  0  0  0  0  0
   -1.8880    0.3309   -1.1885 O   0  0  0  0  0  0  0  0  0  0  0  0
    1.7100   -1.6857   -1.5964 O   0  0  0  0  0  0  0  0  0  0  0  0
   -3.1286    1.0424   -1.4555 O   0  0  0  0  0  0  0  0  0  0  0  0
    1.8672   -0.2695    0.2411 C   0  0  1  0  0  0  0  0  0  0  0  0
   -1.6595    0.3704    0.2276 C   0  0  1  0  0  0  0  0  0  0  0  0
    3.0292    0.4576   -0.4701 C   0  0  0  0  0  0  0  0  0  0  0  0
   -2.7849   -0.3668    0.9842 C   0  0  0  0  0  0  0  0  0  0  0  0
    2.0602   -0.2459    1.7611 C   0  0  0  0  0  0  0  0  0  0  0  0
   -1.5411    1.8162    0.7290 C   0  0  0  0  0  0  0  0  0  0  0  0
    3.1928    1.9239   -0.0901 C   0  0  0  0  0  0  0  0  0  0  0  0
   -2.9616   -1.8146    0.5374 C   0  0  0  0  0  0  0  0  0  0  0  0
    3.9705   -0.0760   -0.2880 H   0  0  0  0  0  0  0  0  0  0  0  0
    2.8717    0.4294   -1.5556 H   0  0  0  0  0  0  0  0  0  0  0  0
   -3.7420    0.1507    0.8505 H   0  0  0  0  0  0  0  0  0  0  0  0
   -2.5635   -0.3692    2.0590 H   0  0  0  0  0  0  0  0  0  0  0  0
    1.9081    0.7553    2.1765 H   0  0  0  0  0  0  0  0  0  0  0  0
    1.3445   -0.9113    2.2580 H   0  0  0  0  0  0  0  0  0  0  0  0
    3.0570   -0.6060    2.0382 H   0  0  0  0  0  0  0  0  0  0  0  0
   -0.8383    2.3924    0.1170 H   0  0  0  0  0  0  0  0  0  0  0  0
   -2.5009    2.3409    0.6741 H   0  0  0  0  0  0  0  0  0  0  0  0
   -1.1850    1.8497    1.7644 H   0  0  0  0  0  0  0  0  0  0  0  0
    2.2724    2.4885   -0.2673 H   0  0  0  0  0  0  0  0  0  0  0  0
    3.9860    2.3790   -0.6924 H   0  0  0  0  0  0  0  0  0  0  0  0
    3.4733    2.0366    0.9611 H   0  0  0  0  0  0  0  0  0  0  0  0
   -3.7633   -2.2885    1.1132 H   0  0  0  0  0  0  0  0  0  0  0  0
   -3.2289   -1.8766   -0.5217 H   0  0  0  0  0  0  0  0  0  0  0  0
   -2.0476   -2.3950    0.6964 H   0  0  0  0  0  0  0  0  0  0  0  0
    0.7516   -1.8490   -1.5705 H   0  0  0  0  0  0  0  0  0  0  0  0
   -3.6637    0.2492   -1.6277 H   0  0  0  0  0  0  0  0  0  0  0  0
  1  2  1  0  0  0  0
  1  7  1  0  0  0  0
  2  8  1  0  0  0  0
  3  5  1  0  0  0  0
  3  7  1  0  0  0  0
  4  6  1  0  0  0  0
  4  8  1  0  0  0  0
  5 31  1  0  0  0  0
  6 32  1  0  0  0  0
  7  9  1  0  0  0  0
  7 11  1  0  0  0  0
  8 10  1  0  0  0  0
  8 12  1  0  0  0  0
  9 13  1  0  0  0  0
  9 15  1  0  0  0  0
  9 16  1  0  0  0  0
 10 14  1  0  0  0  0
 10 17  1  0  0  0  0
 10 18  1  0  0  0  0
 11 19  1  0  0  0  0
 11 20  1  0  0  0  0
 11 21  1  0  0  0  0
 12 22  1  0  0  0  0
 12 23  1  0  0  0  0
 12 24  1  0  0  0  0
 13 25  1  0  0  0  0
 13 26  1  0  0  0  0
 13 27  1  0  0  0  0
 14 28  1  0  0  0  0
 14 29  1  0  0  0  0
 14 30  1  0  0  0  0
M  END
> <PUBCHEM_COMPOUND_CID>
3672772

> <PUBCHEM_CONFORMER_RMSD>
0.8

> <PUBCHEM_CONFORMER_DIVERSEORDER>
1
17
80
93
82
69
28
85
88
87
97
65
75
20
10
34
105
8
71
83
78
68
79
12
30
74
102
2
101
16
66
89
4
70
29
38
3
72
95
48
42
84
50
53
9
99
96
49
92
7
59
47
11
91
103
62
81
35
46
33
27
14
36
57
21
94
100
51
25
41
86
22
54
64
56
13
106
5
19
98
26
39
61
90
63
32
31
73
104
24
15
60
44
58
18
77
55
6
37
23
76
52
40
45
67
43

> <PUBCHEM_MMFF94_PARTIAL_CHARGES>
10
1 -0.28
2 -0.28
3 -0.28
31 0.4
32 0.4
4 -0.28
5 -0.4
6 -0.4
7 0.56
8 0.56

> <PUBCHEM_EFFECTIVE_ROTOR_COUNT>
7

> <PUBCHEM_PHARMACOPHORE_FEATURES>
2
1 13 hydrophobe
1 14 hydrophobe

> <PUBCHEM_HEAVY_ATOM_COUNT>
14

> <PUBCHEM_ATOM_DEF_STEREO_COUNT>
0

> <PUBCHEM_ATOM_UDEF_STEREO_COUNT>
2

> <PUBCHEM_BOND_DEF_STEREO_COUNT>
0

> <PUBCHEM_BOND_UDEF_STEREO_COUNT>
0

> <PUBCHEM_ISOTOPIC_ATOM_COUNT>
0

> <PUBCHEM_COMPONENT_COUNT>
1

> <PUBCHEM_CACTVS_TAUTO_COUNT>
1

> <PUBCHEM_CONFORMER_ID>
00380AC400000001

> <PUBCHEM_MMFF94_ENERGY>
20.7537

> <PUBCHEM_FEATURE_SELFOVERLAP>
10.149

> <PUBCHEM_SHAPE_FINGERPRINT>
107287 299 18060145366035761410
12897270 3 18342178881757850264
12932764 1 17531253811591915497
14252887 29 18119555325248866619
15310529 11 17988655063983641689
15775835 57 17240763943303180968
16945 1 17917984005632135648
18522851 12 16272219586555289487
19973954 147 18340776927054504856
20082192 1 18263361404195762304
20449540 30 18261960751200251781
21160774 45 18055911241204564751
21524375 3 17899988415465385948
23557571 272 18040159530218824957
25610 137 18268157620018985689
3248919 1 18341888546063011641
369184 2 17458341918752595881
74978 22 18116712915475174218
8030462 33 17846493699422497304

> <PUBCHEM_SHAPE_MULTIPOLES>
252.9
5.74
1.86
1.36
0.16
0
-0.08
-0.51
-0.28
-0.01
-0.19
0.04
0.15
0.59

> <PUBCHEM_SHAPE_SELFOVERLAP>
467.969

> <PUBCHEM_SHAPE_VOLUME>
160.2

> <PUBCHEM_COORDINATE_TYPE>
2
5
10

$$$$
7501
  -OEChem-04272217043D

 16 16  0     0  0  0  0  0  0999 V2000
    0.5487   -0.2144    0.1043 C   0  0  0  0  0  0  0  0  0  0  0  0
   -0.3364   -1.2879    0.0052 C   0  0  0  0  0  0  0  0  0  0  0  0
    0.0619    1.0927    0.1091 C   0  0  0  0  0  0  0  0  0  0  0  0
   -1.7083   -1.0543   -0.0889 C   0  0  0  0  0  0  0  0  0  0  0  0
   -1.3101    1.3263    0.0151 C   0  0  0  0  0  0  0  0  0  0  0  0
   -2.1952    0.2528   -0.0839 C   0  0  0  0  0  0  0  0  0  0  0  0
    1.9794   -0.4580    0.2022 C   0  0  0  0  0  0  0  0  0  0  0  0
    2.9601    0.3428   -0.2630 C   0  0  0  0  0  0  0  0  0  0  0  0
    0.0255   -2.3133   -0.0015 H   0  0  0  0  0  0  0  0  0  0  0  0
    0.7226    1.9510    0.1990 H   0  0  0  0  0  0  0  0  0  0  0  0
   -2.3977   -1.8900   -0.1662 H   0  0  0  0  0  0  0  0  0  0  0  0
   -1.6899    2.3438    0.0222 H   0  0  0  0  0  0  0  0  0  0  0  0
   -3.2635    0.4346   -0.1562 H   0  0  0  0  0  0  0  0  0  0  0  0
    2.2727   -1.3927    0.6752 H   0  0  0  0  0  0  0  0  0  0  0  0
    3.9982    0.0502   -0.1434 H   0  0  0  0  0  0  0  0  0  0  0  0
    2.7608    1.2784   -0.7731 H   0  0  0  0  0  0  0  0  0  0  0  0
  1  2  2  0  0  0  0
  1  3  1  0  0  0  0
  1  7  1  0  0  0  0
  2  4  1  0  0  0  0
  2  9  1  0  0  0  0
  3  5  2  0  0  0  0
  3 10  1  0  0  0  0
  4  6  2  0  0  0  0
  4 11  1  0  0  0  0
  5  6  1  0  0  0  0
  5 12  1  0  0  0  0
  6 13  1  0  0  0  0
  7  8  2  0  0  0  0
  7 14  1  0  0  0  0
  8 15  1  0  0  0  0
  8 16  1  0  0  0  0
M  END
> <PUBCHEM_COMPOUND_CID>
7501

> <PUBCHEM_CONFORMER_RMSD>
0.4

> <PUBCHEM_CONFORMER_DIVERSEORDER>
1

> <PUBCHEM_MMFF94_PARTIAL_CHARGES>
16
1 0.03
10 0.15
11 0.15
12 0.15
13 0.15
14 0.15
15 0.15
16 0.15
2 -0.15
3 -0.15
4 -0.15
5 -0.15
6 -0.15
7 -0.18
8 -0.3
9 0.15

> <PUBCHEM_EFFECTIVE_ROTOR_COUNT>
1

> <PUBCHEM_PHARMACOPHORE_FEATURES>
2
1 8 hydrophobe
6 1 2 3 4 5 6 rings

> <PUBCHEM_HEAVY_ATOM_COUNT>
8

> <PUBCHEM_ATOM_DEF_STEREO_COUNT>
0

> <PUBCHEM_ATOM_UDEF_STEREO_COUNT>
0

> <PUBCHEM_BOND_DEF_STEREO_COUNT>
0

> <PUBCHEM_BOND_UDEF_STEREO_COUNT>
0

> <PUBCHEM_ISOTOPIC_ATOM_COUNT>
0

> <PUBCHEM_COMPONENT_COUNT>
1

> <PUBCHEM_CACTVS_TAUTO_COUNT>
1

> <PUBCHEM_CONFORMER_ID>
00001D4D00000001

> <PUBCHEM_MMFF94_ENERGY>
21.2564

> <PUBCHEM_FEATURE_SELFOVERLAP>
10.148

> <PUBCHEM_SHAPE_FINGERPRINT>
10857977 72 18340475781100906080
12897270 3 18411982472774412612
14325111 11 18410293571337682656
14390081 3 18413103970371620168
16714656 1 18411983563363789791
16945 1 18411976970610076465
18185500 45 18334853943677656834
20645464 45 17774705542026768650
21040471 1 18195804076832502193
23235685 24 18340201899753156841
23402655 69 18124013652343667565
23552423 10 18261675857376676578
2748010 2 18051122893871820231
29004967 10 16128656349216716762
369184 2 15574712504054599536
5084963 1 18270115699935594410

> <PUBCHEM_SHAPE_MULTIPOLES>
164.64
3.44
1.39
0.63
2
0.04
0
0.18
-0.26
-0.5
0.01
0.03
0
-0.07

> <PUBCHEM_SHAPE_SELFOVERLAP>
337.893

> <PUBCHEM_SHAPE_VOLUME>
90.9

> <PUBCHEM_COORDINATE_TYPE>
2
5
10

$$$$
962
  -OEChem-04272217292D

  3  2  0     0  0  0  0  0  0999 V2000
    2.5369   -0.1550    0.0000 O   0  0  0  0  0  0  0  0  0  0  0  0
    3.0739    0.1550    0.0000 H   0  0  0  0  0  0  0  0  0  0  0  0
    2.0000    0.1550    0.0000 H   0  0  0  0  0  0  0  0  0  0  0  0
  1  2  1  0  0  0  0
  1  3  1  0  0  0  0
M  END
> <PUBCHEM_COMPOUND_CID>
962

> <PUBCHEM_COMPOUND_CANONICALIZED>
1

> <PUBCHEM_CACTVS_COMPLEXITY>
0

> <PUBCHEM_CACTVS_HBOND_ACCEPTOR>
1

> <PUBCHEM_CACTVS_HBOND_DONOR>
1

> <PUBCHEM_CACTVS_ROTATABLE_BOND>
0

> <PUBCHEM_CACTVS_SUBSKEYS>
AAADcQAAIAAAAAAAAAAAAAAAAAAAAAAAAAAAAAAAAAAAAAAAAAAAAAAACAAAAAAAAAAAAAAAAAAAAAAAAAAAAAAAAAAAAAAAAAAAAAAAAAAAAAAAAAAAAAAAAAAAAAAAAAAAAAAAAAAAAAAAAAAAAAAAAA==

> <PUBCHEM_IUPAC_OPENEYE_NAME>
water

> <PUBCHEM_IUPAC_CAS_NAME>
oxidane

> <PUBCHEM_IUPAC_NAME_MARKUP>
oxidane

> <PUBCHEM_IUPAC_NAME>
oxidane

> <PUBCHEM_IUPAC_SYSTEMATIC_NAME>
oxidane

> <PUBCHEM_IUPAC_TRADITIONAL_NAME>
water

> <PUBCHEM_IUPAC_INCHI>
InChI=1S/H2O/h1H2

> <PUBCHEM_IUPAC_INCHIKEY>
XLYOFNOQVPJJNP-UHFFFAOYSA-N

> <PUBCHEM_XLOGP3_AA>
-0.5

> <PUBCHEM_EXACT_MASS>
18.010564683

> <PUBCHEM_MOLECULAR_FORMULA>
H2O

> <PUBCHEM_MOLECULAR_WEIGHT>
18.015

> <PUBCHEM_OPENEYE_CAN_SMILES>
O

> <PUBCHEM_OPENEYE_ISO_SMILES>
O

> <PUBCHEM_CACTVS_TPSA>
1

> <PUBCHEM_MONOISOTOPIC_WEIGHT>
18.010564683

> <PUBCHEM_TOTAL_CHARGE>
0

> <PUBCHEM_HEAVY_ATOM_COUNT>
1

> <PUBCHEM_ATOM_DEF_STEREO_COUNT>
0

> <PUBCHEM_ATOM_UDEF_STEREO_COUNT>
0

> <PUBCHEM_BOND_DEF_STEREO_COUNT>
0

> <PUBCHEM_BOND_UDEF_STEREO_COUNT>
0

> <PUBCHEM_ISOTOPIC_ATOM_COUNT>
0

> <PUBCHEM_COMPONENT_COUNT>
1

> <PUBCHEM_CACTVS_TAUTO_COUNT>
3

> <PUBCHEM_COORDINATE_TYPE>
1
5
255

$$$$
